************************************************************************
* auCdl Netlist:
* 
* Library Name:  vbbgen_PULPV3_monitor
* Top Cell Name: vbbgen_PULPV3_monitor
* View Name:     schematic
* Netlisted on:  Jun  7 19:24:24 2015
************************************************************************

.INCLUDE  $PDKITROOT/DATA/LIB/OpenAccess/cmos32lp/.il/devices.cdl
*.BIPOLAR
*.RESI = 2000 
*.RESVAL
*.CAPVAL
*.DIOPERI
*.DIOAREA
*.EQUATION
*.SCALE METER
*.MEGA
.PARAM



************************************************************************
* Library Name: C28SOI_SC_12_CORE_LL
* Cell Name:    C12T28SOI_LL_MUX21X8_P0
* View Name:    cmos_sch
************************************************************************

.SUBCKT C12T28SOI_LL_MUX21X8_P0 D0 D1 S0 Z inh_gnd inh_gnds inh_vdd inh_vdds
*.PININFO D0:I D1:I S0:I Z:O inh_gnd:B inh_gnds:B inh_vdd:B inh_vdds:B
MM11 Z sn3 inh_gnd inh_gnds lvtnfet m=1 w=378.0n l=30.0n nf=1.0 ngcon=1 p_la=0 
+ ptwell=0 swacc=-1 swrg=-1 swrsub=-1 mismatch=1
MM5 sn2 D1 inh_gnd inh_gnds lvtnfet m=1 w=196.0n l=30.0n nf=1.0 ngcon=1 p_la=0 
+ ptwell=0 swacc=-1 swrg=-1 swrsub=-1 mismatch=1
MM3 sn1 D0 inh_gnd inh_gnds lvtnfet m=1 w=196.0n l=30.0n nf=1.0 ngcon=1 p_la=0 
+ ptwell=0 swacc=-1 swrg=-1 swrsub=-1 mismatch=1
MM9 sn3 S0 sn2 inh_gnds lvtnfet m=1 w=196.0n l=30.0n nf=1.0 ngcon=1 p_la=0 
+ ptwell=0 swacc=-1 swrg=-1 swrsub=-1 mismatch=1
MM1 sn0 S0 inh_gnd inh_gnds lvtnfet m=1 w=196.0n l=30.0n nf=1.0 ngcon=1 p_la=0 
+ ptwell=0 swacc=-1 swrg=-1 swrsub=-1 mismatch=1
MM7 sn3 sn0 sn1 inh_gnds lvtnfet m=1 w=196.0n l=30.0n nf=1.0 ngcon=1 p_la=0 
+ ptwell=0 swacc=-1 swrg=-1 swrsub=-1 mismatch=1
MM10 Z sn3 inh_vdd inh_vdds lvtpfet m=1 w=538.0n l=30.0n nf=1.0 ngcon=1 p_la=0 
+ ptwell=0 swacc=-1 swrg=-1 swrsub=-1 mismatch=1
MM6 sn3 S0 sn1 inh_vdds lvtpfet m=1 w=286.0n l=30.0n nf=1.0 ngcon=1 p_la=0 
+ ptwell=0 swacc=-1 swrg=-1 swrsub=-1 mismatch=1
MM4 sn2 D1 inh_vdd inh_vdds lvtpfet m=1 w=286.0n l=30.0n nf=1.0 ngcon=1 p_la=0 
+ ptwell=0 swacc=-1 swrg=-1 swrsub=-1 mismatch=1
MM2 sn1 D0 inh_vdd inh_vdds lvtpfet m=1 w=286.0n l=30.0n nf=1.0 ngcon=1 p_la=0 
+ ptwell=0 swacc=-1 swrg=-1 swrsub=-1 mismatch=1
MM8 sn3 sn0 sn2 inh_vdds lvtpfet m=1 w=286.0n l=30.0n nf=1.0 ngcon=1 p_la=0 
+ ptwell=0 swacc=-1 swrg=-1 swrsub=-1 mismatch=1
MM0 sn0 S0 inh_vdd inh_vdds lvtpfet m=1 w=286.0n l=30.0n nf=1.0 ngcon=1 p_la=0 
+ ptwell=0 swacc=-1 swrg=-1 swrsub=-1 mismatch=1
.ENDS

************************************************************************
* Library Name: C28SOI_SC_12_CORE_LL
* Cell Name:    C12T28SOI_LL_NAND2X3_P0
* View Name:    cmos_sch
************************************************************************

.SUBCKT C12T28SOI_LL_NAND2X3_P0 A B Z inh_gnd inh_gnds inh_vdd inh_vdds
*.PININFO A:I B:I Z:O inh_gnd:B inh_gnds:B inh_vdd:B inh_vdds:B
MM67 Z B net247 inh_gnds lvtnfet m=1 w=196.0n l=30.0n nf=1.0 ngcon=1 p_la=0 
+ ptwell=0 swacc=-1 swrg=-1 swrsub=-1 mismatch=1
MM64 net247 A inh_gnd inh_gnds lvtnfet m=1 w=196.0n l=30.0n nf=1.0 ngcon=1 
+ p_la=0 ptwell=0 swacc=-1 swrg=-1 swrsub=-1 mismatch=1
MM66 Z B inh_vdd inh_vdds lvtpfet m=1 w=286.0n l=30.0n nf=1.0 ngcon=1 p_la=0 
+ ptwell=0 swacc=-1 swrg=-1 swrsub=-1 mismatch=1
MM65 Z A inh_vdd inh_vdds lvtpfet m=1 w=286.0n l=30.0n nf=1.0 ngcon=1 p_la=0 
+ ptwell=0 swacc=-1 swrg=-1 swrsub=-1 mismatch=1
.ENDS

************************************************************************
* Library Name: vbbgen_PULPV3_monitor
* Cell Name:    SR_latch
* View Name:    schematic
************************************************************************

.SUBCKT SR_latch GND Q Qb Rb Sb VDD
*.PININFO Rb:I Sb:I Q:O Qb:O GND:B VDD:B
XI0 Q Rb Qb GND GND VDD GND / C12T28SOI_LL_NAND2X3_P0
XI30 Qb Sb Q GND GND VDD GND / C12T28SOI_LL_NAND2X3_P0
.ENDS

************************************************************************
* Library Name: vbbgen_PULPV3_monitor
* Cell Name:    comparator_preamp_sync_1v8_ntype
* View Name:    schematic
************************************************************************

.SUBCKT comparator_preamp_sync_1v8_ntype GND GNDS VDD VDDS clkCmpUp clkResetUp 
+ inm inp outm outp
*.PININFO clkCmpUp:I clkResetUp:I inm:I inp:I outm:O outp:O GND:B GNDS:B VDD:B 
*.PININFO VDDS:B
MPinPUp outP_pre clkCmpUp VDD GND lvtpfet m=1 w=500n l=30.00n nf=1.0 ngcon=1 
+ p_la=0 ptwell=0 swacc=0 swrg=0 swrsub=0 mismatch=1
MPinPUm outM_pre clkCmpUp VDD GND lvtpfet m=1 w=500n l=30.00n nf=1.0 ngcon=1 
+ p_la=0 ptwell=0 swacc=0 swrg=0 swrsub=0 mismatch=1
MPinvP Sb latchOutP VDD GND lvtpfet m=1 w=120n l=30.00n nf=1.0 ngcon=1 p_la=0 
+ ptwell=0 swacc=-1 swrg=-1 swrsub=-1 mismatch=1
MPtailVDD virtual_GND clkCmpUp VDD GND lvtpfet m=1 w=1u l=30n nf=2.0 ngcon=1 
+ p_la=0 ptwell=0 swacc=0 swrg=0 swrsub=0 mismatch=1
MPinvM Rb latchOutN VDD GND lvtpfet m=1 w=120n l=30.00n nf=1.0 ngcon=1 p_la=0 
+ ptwell=0 swacc=-1 swrg=-1 swrsub=-1 mismatch=1
MPlatchM tailN latchOutP latchOutN GND lvtpfet m=1 w=500n l=30n nf=1.0 ngcon=1 
+ p_la=0 ptwell=0 swacc=0 swrg=0 swrsub=0 mismatch=1
MPlatchP tailP latchOutN latchOutP GND lvtpfet m=1 w=500n l=30n nf=1.0 ngcon=1 
+ p_la=0 ptwell=0 swacc=0 swrg=0 swrsub=0 mismatch=1
MPtailP tailP outP_pre VDD GND lvtpfet m=1 w=1u l=30n nf=2.0 ngcon=1 p_la=0 
+ ptwell=0 swacc=0 swrg=0 swrsub=0 mismatch=1
MPtailM tailN outM_pre VDD GND lvtpfet m=1 w=1u l=30n nf=2.0 ngcon=1 p_la=0 
+ ptwell=0 swacc=0 swrg=0 swrsub=0 mismatch=1
XI70 GND outp outm Rb Sb VDD / SR_latch
MNinP_EG outP_pre inp virtual_GND GND eglvtnfet m=1 w=500n l=150.00n nf=1.0 
+ ngcon=1 p_la=0 ptwell=0 swacc=0 swrg=0 swrsub=0 mismatch=1
MNinM_EG outM_pre inm virtual_GND GND eglvtnfet m=1 w=500n l=150.00n nf=1.0 
+ ngcon=1 p_la=0 ptwell=0 swacc=0 swrg=0 swrsub=0 mismatch=1
MNlatchP latchOutP latchOutN GND GND lvtnfet m=1 w=300n l=30n nf=1.0 ngcon=1 
+ p_la=0 ptwell=0 swacc=0 swrg=0 swrsub=0 mismatch=1
MNtailGND virtual_GND clkCmpUp GND GND lvtnfet m=1 w=600n l=30n nf=2.0 ngcon=1 
+ p_la=0 ptwell=0 swacc=0 swrg=0 swrsub=0 mismatch=1
MNinvM Rb latchOutN GND GND lvtnfet m=1 w=80n l=30.00n nf=1.0 ngcon=1 p_la=0 
+ ptwell=0 swacc=-1 swrg=-1 swrsub=-1 mismatch=1
MNtieGNDTailP tailP clkResetUp GND GND lvtnfet m=1 w=300n l=30n nf=1.0 ngcon=1 
+ p_la=0 ptwell=0 swacc=0 swrg=0 swrsub=0 mismatch=1
MNtieGNDOutM latchOutN clkResetUp GND GND lvtnfet m=1 w=300n l=30n nf=1.0 
+ ngcon=1 p_la=0 ptwell=0 swacc=0 swrg=0 swrsub=0 mismatch=1
MNtieGNDTailM tailN clkResetUp GND GND lvtnfet m=1 w=300n l=30n nf=1.0 ngcon=1 
+ p_la=0 ptwell=0 swacc=0 swrg=0 swrsub=0 mismatch=1
MNlatchM latchOutN latchOutP GND GND lvtnfet m=1 w=300n l=30n nf=1.0 ngcon=1 
+ p_la=0 ptwell=0 swacc=0 swrg=0 swrsub=0 mismatch=1
MNinvP Sb latchOutP GND GND lvtnfet m=1 w=80n l=30.00n nf=1.0 ngcon=1 p_la=0 
+ ptwell=0 swacc=-1 swrg=-1 swrsub=-1 mismatch=1
MNtieGNDOutP latchOutP clkResetUp GND GND lvtnfet m=1 w=300n l=30n nf=1.0 
+ ngcon=1 p_la=0 ptwell=0 swacc=0 swrg=0 swrsub=0 mismatch=1
.ENDS

************************************************************************
* Library Name: C28SOI_SC_12_CORE_LL
* Cell Name:    C12T28SOI_LL_BFX4_P0
* View Name:    cmos_sch
************************************************************************

.SUBCKT C12T28SOI_LL_BFX4_P0 A Z inh_gnd inh_gnds inh_vdd inh_vdds
*.PININFO A:I Z:O inh_gnd:B inh_gnds:B inh_vdd:B inh_vdds:B
MM1 net023 A inh_gnd inh_gnds lvtnfet m=1 w=196.0n l=30.0n nf=1.0 ngcon=1 
+ p_la=0 ptwell=0 swacc=-1 swrg=-1 swrsub=-1 mismatch=1
MM19 Z net023 inh_gnd inh_gnds lvtnfet m=1 w=196.0n l=30.0n nf=1.0 ngcon=1 
+ p_la=0 ptwell=0 swacc=-1 swrg=-1 swrsub=-1 mismatch=1
MM4 net023 A inh_vdd inh_vdds lvtpfet m=1 w=286.0n l=30.0n nf=1.0 ngcon=1 
+ p_la=0 ptwell=0 swacc=-1 swrg=-1 swrsub=-1 mismatch=1
MM20 Z net023 inh_vdd inh_vdds lvtpfet m=1 w=286.0n l=30.0n nf=1.0 ngcon=1 
+ p_la=0 ptwell=0 swacc=-1 swrg=-1 swrsub=-1 mismatch=1
.ENDS

************************************************************************
* Library Name: vbbgen_PULPV3_monitor
* Cell Name:    comparator_preamp_sync_1v8_ptype
* View Name:    schematic
************************************************************************

.SUBCKT comparator_preamp_sync_1v8_ptype GND GNDS VDD VDD1V8 VDDS 
+ clkCmpDown_1v8 clkResetDown inm inp outm outp
*.PININFO clkCmpDown_1v8:I clkResetDown:I inm:I inp:I outm:O outp:O GND:B 
*.PININFO GNDS:B VDD:B VDD1V8:B VDDS:B
MPtieVDDtailM tailM clkResetDown VDD GND lvtpfet m=1 w=160n l=30.00n nf=1.0 
+ ngcon=1 p_la=0 ptwell=0 swacc=-1 swrg=-1 swrsub=-1 mismatch=1
MPtieVDDtailP tailP clkResetDown VDD GND lvtpfet m=1 w=160n l=30.00n nf=1.0 
+ ngcon=1 p_la=0 ptwell=0 swacc=-1 swrg=-1 swrsub=-1 mismatch=1
MPtieVDDoutP latchOutP clkResetDown VDD GND lvtpfet m=1 w=160n l=30.00n nf=1.0 
+ ngcon=1 p_la=0 ptwell=0 swacc=-1 swrg=-1 swrsub=-1 mismatch=1
MPlatchP latchOutP latchOutN VDD GND lvtpfet m=1 w=500n l=30.00n nf=1.0 
+ ngcon=1 p_la=0 ptwell=0 swacc=-1 swrg=-1 swrsub=-1 mismatch=1
MPlatchM latchOutN latchOutP VDD GND lvtpfet m=1 w=500n l=30.00n nf=1.0 
+ ngcon=1 p_la=0 ptwell=0 swacc=-1 swrg=-1 swrsub=-1 mismatch=1
MPtieVDDoutM latchOutN clkResetDown VDD GND lvtpfet m=1 w=160n l=30.00n nf=1.0 
+ ngcon=1 p_la=0 ptwell=0 swacc=-1 swrg=-1 swrsub=-1 mismatch=1
MNtailM_EG tailM outm_pre GND GND eglvtnfet m=1 w=500n l=150.00n nf=1.0 
+ ngcon=1 p_la=0 ptwell=0 swacc=-1 swrg=-1 swrsub=-1 mismatch=1
MNtailP_EG tailP outp_pre GND GND eglvtnfet m=1 w=500n l=150.00n nf=1.0 
+ ngcon=1 p_la=0 ptwell=0 swacc=-1 swrg=-1 swrsub=-1 mismatch=1
MNtailGND_EG virtual_vdd clkCmpDown_1v8 GND GND eglvtnfet m=1 w=400n l=150.00n 
+ nf=2.0 ngcon=1 p_la=0 ptwell=0 swacc=-1 swrg=-1 swrsub=-1 mismatch=1
MNinPDm_EG outm_pre clkCmpDown_1v8 GND GND eglvtnfet m=1 w=200n l=150.00n 
+ nf=1.0 ngcon=1 p_la=0 ptwell=0 swacc=-1 swrg=-1 swrsub=-1 mismatch=1
MNinPDp_EG outp_pre clkCmpDown_1v8 GND GND eglvtnfet m=1 w=200n l=150.00n 
+ nf=1.0 ngcon=1 p_la=0 ptwell=0 swacc=-1 swrg=-1 swrsub=-1 mismatch=1
MPinP_EG outp_pre inp virtual_vdd GND eglvtpfet m=1 w=700n l=150.00n nf=1.0 
+ ngcon=1 p_la=0 ptwell=0 swacc=-1 swrg=-1 swrsub=-1 mismatch=1
MPtailVDD1V8_EG virtual_vdd clkCmpDown_1v8 VDD1V8 GND eglvtpfet m=1 w=1.4u 
+ l=150.00n nf=2.0 ngcon=1 p_la=0 ptwell=0 swacc=-1 swrg=-1 swrsub=-1 
+ mismatch=1
MPinM_EG outm_pre inm virtual_vdd GND eglvtpfet m=1 w=700n l=150.00n nf=1.0 
+ ngcon=1 p_la=0 ptwell=0 swacc=-1 swrg=-1 swrsub=-1 mismatch=1
MNlatchP latchOutP latchOutN tailP GND lvtnfet m=1 w=300n l=30.00n nf=1.0 
+ ngcon=1 p_la=0 ptwell=0 swacc=-1 swrg=-1 swrsub=-1 mismatch=1
MNlatchM latchOutN latchOutP tailM GND lvtnfet m=1 w=300n l=30.00n nf=1.0 
+ ngcon=1 p_la=0 ptwell=0 swacc=-1 swrg=-1 swrsub=-1 mismatch=1
XbufferP latchOutP Rb GND GND VDD GND / C12T28SOI_LL_BFX4_P0
XbufferN latchOutN Sb GND GND VDD GND / C12T28SOI_LL_BFX4_P0
XSRlatch GND outp outm Rb Sb VDD / SR_latch
.ENDS

************************************************************************
* Library Name: vbbgen_PULPV3_monitor
* Cell Name:    comparator_1v8_PN_wMUX
* View Name:    schematic
************************************************************************

.SUBCKT comparator_1v8_PN_wMUX GND GNDS VDD VDD1V8 VDDS inm inp n_clkCmpUp 
+ n_clkResetUp outp p_clkCmpDown_1v8 p_clkResetDown selPb_selN
*.PININFO inm:I inp:I n_clkCmpUp:I n_clkResetUp:I p_clkCmpDown_1v8:I 
*.PININFO p_clkResetDown:I selPb_selN:I outp:O GND:B GNDS:B VDD:B VDD1V8:B 
*.PININFO VDDS:B
XNPoutp_MUX p_outp n_outp selPb_selN outp GND GND VDD GND / 
+ C12T28SOI_LL_MUX21X8_P0
XNtypeCMP GND GND VDD GND n_clkCmpUp n_clkResetUp inm inp net18 n_outp / 
+ comparator_preamp_sync_1v8_ntype
XPtypeCMP GND GND VDD VDD1V8 GND p_clkCmpDown_1v8 p_clkResetDown inm inp net20 
+ p_outp / comparator_preamp_sync_1v8_ptype
.ENDS

************************************************************************
* Library Name: vbbgen_PULPV3_monitor
* Cell Name:    cmpWellBundle
* View Name:    schematic
************************************************************************

.SUBCKT cmpWellBundle GND VDD VDD1V8 lowerBound lowerResult nClkCMP nClkRST 
+ pClkCMPb_1v8 pClkRSTb selPb_selN upperBound upperResult wellSample
*.PININFO nClkCMP:I nClkRST:I pClkCMPb_1v8:I pClkRSTb:I selPb_selN:I 
*.PININFO lowerResult:O upperResult:O GND:B VDD:B VDD1V8:B lowerBound:B 
*.PININFO upperBound:B wellSample:B
XlowerBound_cmpNP GND GND VDD VDD1V8 GND lowerBound wellSample nClkCMP nClkRST 
+ lowerResult pClkCMPb_1v8 pClkRSTb selPb_selN / comparator_1v8_PN_wMUX
XupperBound_cmpNP GND GND VDD VDD1V8 GND upperBound wellSample nClkCMP nClkRST 
+ upperResult pClkCMPb_1v8 pClkRSTb selPb_selN / comparator_1v8_PN_wMUX
.ENDS

************************************************************************
* Library Name: ST_C32_addon_DP
* Cell Name:    cmom_6U1x_2U2x_2T8x_LB_2p
* View Name:    schematic
************************************************************************

.SUBCKT cmom_6U1x_2U2x_2T8x_LB_2p minus plus nf_dirx=10.0 nf_diry=10.0 
+ mtlfrbot=2 mtlfrtop=5 mtlconbot=2 mtlcontop=4 spacefinger_mx=1e-07 
+ wfinger_mx=1e-07 fr_big_finger=0 m=1
*.PININFO minus:B plus:B
.ENDS

************************************************************************
* Library Name: tesla
* Cell Name:    SR_latch_schematic
* View Name:    schematic
************************************************************************

.SUBCKT SR_latch_schematic GND Q Qb Rb Sb VDD
*.PININFO Rb:I Sb:I Q:O Qb:O GND:B VDD:B
XI0 Q Rb Qb GND GND VDD GND / C12T28SOI_LL_NAND2X3_P0
XI30 Qb Sb Q GND GND VDD GND / C12T28SOI_LL_NAND2X3_P0
.ENDS

************************************************************************
* Library Name: tesla
* Cell Name:    comparator_preamp_sync_1v8_ptype_schematic
* View Name:    schematic
************************************************************************

.SUBCKT comparator_preamp_sync_1v8_ptype_schematic GND GNDS VDD VDD1V8 VDDS 
+ clkCmpDown_1v8 clkResetDown inm inp outm outp
*.PININFO clkCmpDown_1v8:I clkResetDown:I inm:I inp:I outm:O outp:O GND:B 
*.PININFO GNDS:B VDD:B VDD1V8:B VDDS:B
MPtieVDDtailM tailM clkResetDown VDD GND lvtpfet m=1 w=160n l=30.00n nf=1.0 
+ ngcon=1 p_la=0 ptwell=0 swacc=-1 swrg=-1 swrsub=-1 mismatch=1
MPtieVDDtailP tailP clkResetDown VDD GND lvtpfet m=1 w=160n l=30.00n nf=1.0 
+ ngcon=1 p_la=0 ptwell=0 swacc=-1 swrg=-1 swrsub=-1 mismatch=1
MPtieVDDoutP latchOutP clkResetDown VDD GND lvtpfet m=1 w=160n l=30.00n nf=1.0 
+ ngcon=1 p_la=0 ptwell=0 swacc=-1 swrg=-1 swrsub=-1 mismatch=1
MPlatchP latchOutP latchOutN VDD GND lvtpfet m=1 w=500n l=30.00n nf=1.0 
+ ngcon=1 p_la=0 ptwell=0 swacc=-1 swrg=-1 swrsub=-1 mismatch=1
MPlatchM latchOutN latchOutP VDD GND lvtpfet m=1 w=500n l=30.00n nf=1.0 
+ ngcon=1 p_la=0 ptwell=0 swacc=-1 swrg=-1 swrsub=-1 mismatch=1
MPtieVDDoutM latchOutN clkResetDown VDD GND lvtpfet m=1 w=160n l=30.00n nf=1.0 
+ ngcon=1 p_la=0 ptwell=0 swacc=-1 swrg=-1 swrsub=-1 mismatch=1
MNtailM_EG tailM outm_pre GND GND eglvtnfet m=1 w=500n l=150.00n nf=1.0 
+ ngcon=1 p_la=0 ptwell=0 swacc=-1 swrg=-1 swrsub=-1 mismatch=1
MNtailP_EG tailP outp_pre GND GND eglvtnfet m=1 w=500n l=150.00n nf=1.0 
+ ngcon=1 p_la=0 ptwell=0 swacc=-1 swrg=-1 swrsub=-1 mismatch=1
MNtailGND_EG virtual_vdd clkCmpDown_1v8 GND GND eglvtnfet m=1 w=400n l=150.00n 
+ nf=2.0 ngcon=1 p_la=0 ptwell=0 swacc=-1 swrg=-1 swrsub=-1 mismatch=1
MNinPDm_EG outm_pre clkCmpDown_1v8 GND GND eglvtnfet m=1 w=200n l=150.00n 
+ nf=1.0 ngcon=1 p_la=0 ptwell=0 swacc=-1 swrg=-1 swrsub=-1 mismatch=1
MNinPDp_EG outp_pre clkCmpDown_1v8 GND GND eglvtnfet m=1 w=200n l=150.00n 
+ nf=1.0 ngcon=1 p_la=0 ptwell=0 swacc=-1 swrg=-1 swrsub=-1 mismatch=1
MPinP_EG outp_pre inp virtual_vdd GND eglvtpfet m=1 w=700n l=150.00n nf=1.0 
+ ngcon=1 p_la=0 ptwell=0 swacc=-1 swrg=-1 swrsub=-1 mismatch=1
MPtailVDD1V8_EG virtual_vdd clkCmpDown_1v8 VDD1V8 GND eglvtpfet m=1 w=1.4u 
+ l=150.00n nf=2.0 ngcon=1 p_la=0 ptwell=0 swacc=-1 swrg=-1 swrsub=-1 
+ mismatch=1
MPinM_EG outm_pre inm virtual_vdd GND eglvtpfet m=1 w=700n l=150.00n nf=1.0 
+ ngcon=1 p_la=0 ptwell=0 swacc=-1 swrg=-1 swrsub=-1 mismatch=1
MNlatchP latchOutP latchOutN tailP GND lvtnfet m=1 w=300n l=30.00n nf=1.0 
+ ngcon=1 p_la=0 ptwell=0 swacc=-1 swrg=-1 swrsub=-1 mismatch=1
MNlatchM latchOutN latchOutP tailM GND lvtnfet m=1 w=300n l=30.00n nf=1.0 
+ ngcon=1 p_la=0 ptwell=0 swacc=-1 swrg=-1 swrsub=-1 mismatch=1
XbufferP latchOutP Rb GND GND VDD GND / C12T28SOI_LL_BFX4_P0
XbufferN latchOutN Sb GND GND VDD GND / C12T28SOI_LL_BFX4_P0
XSRlatch GND outp outm Rb Sb VDD / SR_latch_schematic
.ENDS

************************************************************************
* Library Name: C28SOI_SC_12_COREPBP16_LL
* Cell Name:    C12T28SOI_LL_IVX8_P16
* View Name:    cmos_sch
************************************************************************

.SUBCKT C12T28SOI_LL_IVX8_P16 A Z inh_gnd inh_gnds inh_vdd inh_vdds
*.PININFO A:I Z:O inh_gnd:B inh_gnds:B inh_vdd:B inh_vdds:B
MMP1 Z A inh_vdd inh_vdds lvtpfet m=1 w=538.0n l=30.0n nf=1.0 ngcon=1 p_la=16n 
+ ptwell=0 swacc=-1 swrg=-1 swrsub=-1 mismatch=1
MMN1 Z A inh_gnd inh_gnds lvtnfet m=1 w=378.0n l=30.0n nf=1.0 ngcon=1 p_la=16n 
+ ptwell=0 swacc=-1 swrg=-1 swrsub=-1 mismatch=1
.ENDS

************************************************************************
* Library Name: C28SOI_SC_12_COREPBP16_LL
* Cell Name:    C12T28SOI_LL_IVX4_P16
* View Name:    cmos_sch
************************************************************************

.SUBCKT C12T28SOI_LL_IVX4_P16 A Z inh_gnd inh_gnds inh_vdd inh_vdds
*.PININFO A:I Z:O inh_gnd:B inh_gnds:B inh_vdd:B inh_vdds:B
MMN1 Z A inh_gnd inh_gnds lvtnfet m=1 w=196.0n l=30.0n nf=1.0 ngcon=1 p_la=16n 
+ ptwell=0 swacc=-1 swrg=-1 swrsub=-1 mismatch=1
MMP1 Z A inh_vdd inh_vdds lvtpfet m=1 w=286.0n l=30.0n nf=1.0 ngcon=1 p_la=16n 
+ ptwell=0 swacc=-1 swrg=-1 swrsub=-1 mismatch=1
.ENDS

************************************************************************
* Library Name: vbbgen_PULPV3
* Cell Name:    levelShifter_wBuffers1u
* View Name:    schematic
************************************************************************

.SUBCKT levelShifter_wBuffers1u GND VDD VDD1V8 in in1v8
*.PININFO GND:B VDD:B VDD1V8:B in:B in1v8:B
MN44 in1v8 net033 GND GND eglvtnfet m=1 w=700n l=150n nf=1.0 ngcon=2 p_la=0 
+ ptwell=0 swacc=1 swrg=1 swrsub=1 mismatch=1
MN45 net033 ls_out GND GND eglvtnfet m=1 w=350n l=150n nf=1.0 ngcon=2 p_la=0 
+ ptwell=0 swacc=1 swrg=1 swrsub=1 mismatch=1
MNMOS_selB ls_out inB_d2 GND GND eglvtnfet m=1 w=500n l=150.00n nf=1.0 ngcon=1 
+ p_la=0 ptwell=0 swacc=1 swrg=1 swrsub=1 mismatch=1
MNMOS_sel inB1v8 in_d2 GND GND eglvtnfet m=1 w=500n l=150.00n nf=1.0 ngcon=1 
+ p_la=0 ptwell=0 swacc=1 swrg=1 swrsub=1 mismatch=1
MP39 net033 ls_out VDD1V8 GND eglvtpfet m=1 w=500n l=150n nf=4 ngcon=1 p_la=0 
+ ptwell=0 swacc=1 swrg=1 swrsub=1 mismatch=1
MP38 in1v8 net033 VDD1V8 GND eglvtpfet m=1 w=1u l=150n nf=4 ngcon=1 p_la=0 
+ ptwell=0 swacc=1 swrg=1 swrsub=1 mismatch=1
MPMOS_selB_UP selBMid inB1v8 VDD1V8 GND eglvtpfet m=1 w=500n l=150.00n nf=1.0 
+ ngcon=1 p_la=0 ptwell=0 swacc=1 swrg=1 swrsub=1 mismatch=1
MPMOS_selB_MID ls_out inB_d2 selBMid GND eglvtpfet m=1 w=500n l=150.00n nf=1.0 
+ ngcon=1 p_la=0 ptwell=0 swacc=1 swrg=1 swrsub=1 mismatch=1
MPMOS_sel_UP selMid ls_out VDD1V8 GND eglvtpfet m=1 w=500n l=150.00n nf=1.0 
+ ngcon=1 p_la=0 ptwell=0 swacc=1 swrg=1 swrsub=1 mismatch=1
MPMOS_sel_MID inB1v8 in_d2 selMid GND eglvtpfet m=1 w=500n l=150.00n nf=1.0 
+ ngcon=1 p_la=0 ptwell=0 swacc=1 swrg=1 swrsub=1 mismatch=1
XI0 net21 in_d2 GND GND VDD GND / C12T28SOI_LL_IVX8_P16
XI173 in_d2 inB_d2 GND GND VDD GND / C12T28SOI_LL_IVX8_P16
XI1 in net21 GND GND VDD GND / C12T28SOI_LL_IVX4_P16
DANTdiode GND VDD tdndsx 50f perim=1.2u
DD0 GND VDD1V8 egtdndsx 50f perim=1.2u
.ENDS

************************************************************************
* Library Name: C28SOI_SC_12_CLK_LR
* Cell Name:    C12T28SOI_LR_CNIVX5_P10
* View Name:    cmos_sch
************************************************************************

.SUBCKT C12T28SOI_LR_CNIVX5_P10 A Z inh_gnd inh_gnds inh_vdd inh_vdds
*.PININFO A:I Z:O inh_gnd:B inh_gnds:B inh_vdd:B inh_vdds:B
MMM2 Z A inh_vdd inh_vdds pfet m=1 w=300n l=30.0n nf=1.0 ngcon=1 p_la=10n 
+ ptwell=0 soa=1 swacc=-1 swrg=-1 swrsub=-1 mismatch=1
MMM3 Z A inh_gnd inh_gnds nfet m=1 w=210n l=30.0n nf=1.0 ngcon=1 p_la=10n 
+ ptwell=0 soa=1 swacc=-1 swrg=-1 swrsub=-1 mismatch=1
.ENDS

************************************************************************
* Library Name: C28SOI_SC_12_CLK_LR
* Cell Name:    C12T28SOI_LR_CNIVX16_P10
* View Name:    cmos_sch
************************************************************************

.SUBCKT C12T28SOI_LR_CNIVX16_P10 A Z inh_gnd inh_gnds inh_vdd inh_vdds
*.PININFO A:I Z:O inh_gnd:B inh_gnds:B inh_vdd:B inh_vdds:B
MMM2 Z A inh_vdd inh_vdds pfet m=1 w=552n l=30.0n nf=1.0 ngcon=1 p_la=10n 
+ ptwell=0 soa=1 swacc=-1 swrg=-1 swrsub=-1 mismatch=1
MMM4 Z A inh_vdd inh_vdds pfet m=1 w=552n l=30.0n nf=1.0 ngcon=1 p_la=10n 
+ ptwell=0 soa=1 swacc=-1 swrg=-1 swrsub=-1 mismatch=1
MMN0 Z A inh_gnd inh_gnds nfet m=1 w=350n l=30.0n nf=1.0 ngcon=1 p_la=10n 
+ ptwell=0 soa=1 swacc=-1 swrg=-1 swrsub=-1 mismatch=1
MMM3 Z A inh_gnd inh_gnds nfet m=1 w=350n l=30.0n nf=1.0 ngcon=1 p_la=10n 
+ ptwell=0 soa=1 swacc=-1 swrg=-1 swrsub=-1 mismatch=1
.ENDS

************************************************************************
* Library Name: C28SOI_SC_12_CLK_LL
* Cell Name:    C12T28SOI_LL_CNIVX5_P10
* View Name:    cmos_sch
************************************************************************

.SUBCKT C12T28SOI_LL_CNIVX5_P10 A Z inh_gnd inh_gnds inh_vdd inh_vdds
*.PININFO A:I Z:O inh_gnd:B inh_gnds:B inh_vdd:B inh_vdds:B
MMM3 Z A inh_gnd inh_gnds lvtnfet m=1 w=210n l=30.0n nf=1.0 ngcon=1 p_la=10n 
+ ptwell=0 swacc=-1 swrg=-1 swrsub=-1 mismatch=1
MMM2 Z A inh_vdd inh_vdds lvtpfet m=1 w=300n l=30.0n nf=1.0 ngcon=1 p_la=10n 
+ ptwell=0 swacc=-1 swrg=-1 swrsub=-1 mismatch=1
.ENDS

************************************************************************
* Library Name: vbbgen_PULPV3_monitor
* Cell Name:    pwell_positive_sampling
* View Name:    schematic
************************************************************************

.SUBCKT pwell_positive_sampling GND VDD VDD1V8 clk dacRef<0> dacRef<1> outm<0> 
+ outm<1> outp<0> outp<1> pwell
*.PININFO clk:I outm<0>:O outm<1>:O outp<0>:O outp<1>:O GND:B VDD:B VDD1V8:B 
*.PININFO dacRef<0>:B dacRef<1>:B pwell:B
XPtypeCMP<0> GND net017 VDD VDD1V8 net023 clk_cmpDown clk_reset sample_net 
+ dacRef<0> outm<0> outp<0> / comparator_preamp_sync_1v8_ptype_schematic
XPtypeCMP<1> GND net017 VDD VDD1V8 net023 clk_cmpDown clk_reset sample_net 
+ dacRef<1> outm<1> outp<1> / comparator_preamp_sync_1v8_ptype_schematic
MP4 clk_cmpDown clk_cmpDown_inv VDD1V8 GND eglvtpfet m=1 w=2u l=150n nf=4 
+ ngcon=1 p_la=0 ptwell=0 swacc=1 swrg=1 swrsub=1 mismatch=1
MP3 clk_cmpDown_inv clk_buf VDD1V8 GND eglvtpfet m=1 w=500n l=150n nf=4 
+ ngcon=1 p_la=0 ptwell=0 swacc=1 swrg=1 swrsub=1 mismatch=1
MP39 clk_reset clk_buf VDD GND eglvtpfet m=1 w=1u l=150n nf=4 ngcon=1 p_la=0 
+ ptwell=0 swacc=1 swrg=1 swrsub=1 mismatch=1
MP2 GND sample_net sample_net GND eglvtpfet m=1 w=1u l=150.00n nf=1.0 ngcon=1 
+ p_la=0 ptwell=0 swacc=-1 swrg=-1 swrsub=-1 mismatch=1
MP0 sample_net sample pwell GND eglvtpfet m=1 w=3u l=150.00n nf=1.0 ngcon=1 
+ p_la=0 ptwell=0 swacc=-1 swrg=-1 swrsub=-1 mismatch=1
XC0 sample clk_delayed cmom_6U1x_2U2x_2T8x_LB_2p nf_dirx=10 nf_diry=80 
+ mtlfrbot=1 mtlfrtop=5 mtlconbot=1 mtlcontop=5 spacefinger_mx=8e-08 
+ wfinger_mx=8e-08 fr_big_finger=0 m=1
XCmom_nwell GND sample_net cmom_6U1x_2U2x_2T8x_LB_2p nf_dirx=90 nf_diry=110 
+ mtlfrbot=1 mtlfrtop=5 mtlconbot=1 mtlcontop=4 spacefinger_mx=8e-08 
+ wfinger_mx=8e-08 fr_big_finger=0 m=1
MN1 clk_cmpDown clk_cmpDown_inv GND GND eglvtnfet m=1 w=1.4u l=150n nf=4.0 
+ ngcon=2 p_la=0 ptwell=0 swacc=1 swrg=1 swrsub=1 mismatch=1
MN0 clk_cmpDown_inv clk_buf GND GND eglvtnfet m=1 w=350n l=150n nf=1.0 ngcon=2 
+ p_la=0 ptwell=0 swacc=1 swrg=1 swrsub=1 mismatch=1
MN45 clk_reset clk_buf GND GND eglvtnfet m=1 w=320n l=150n nf=1.0 ngcon=2 
+ p_la=0 ptwell=0 swacc=1 swrg=1 swrsub=1 mismatch=1
XI25 GND VDD VDD1V8 clk_i clk_buf / levelShifter_wBuffers1u
MP1 sample GND GND GND lvtpfet m=1 w=500n l=30.00n nf=1.0 ngcon=1 p_la=0 
+ ptwell=0 swacc=-1 swrg=-1 swrsub=-1 mismatch=1
XI46 d8 d9 GND GND VDD VDD / C12T28SOI_LR_CNIVX5_P10
XI44 d10 d11 GND GND VDD VDD / C12T28SOI_LR_CNIVX5_P10
XI43 d9 d10 GND GND VDD VDD / C12T28SOI_LR_CNIVX5_P10
XI42 d4 d5 GND GND VDD VDD / C12T28SOI_LR_CNIVX5_P10
XI41 d7 d8 GND GND VDD VDD / C12T28SOI_LR_CNIVX5_P10
XI40 d6 d7 GND GND VDD VDD / C12T28SOI_LR_CNIVX5_P10
XI39 d5 d6 GND GND VDD VDD / C12T28SOI_LR_CNIVX5_P10
XI34 clk_reset d1 GND GND VDD VDD / C12T28SOI_LR_CNIVX5_P10
XI36 d2 d3 GND GND VDD VDD / C12T28SOI_LR_CNIVX5_P10
XI37 d3 d4 GND GND VDD VDD / C12T28SOI_LR_CNIVX5_P10
XI35 d1 d2 GND GND VDD VDD / C12T28SOI_LR_CNIVX5_P10
XI45 d11 clk_delayed GND GND VDD VDD / C12T28SOI_LR_CNIVX16_P10
DANTdiode GND sample_net tdndsx 50f perim=1.2u
XI48 clk clk_i GND GND VDD GND / C12T28SOI_LL_CNIVX5_P10
.ENDS

************************************************************************
* Library Name: vbbgen_PULPV3_monitor
* Cell Name:    inv1v8_x1
* View Name:    schematic
************************************************************************

.SUBCKT inv1v8_x1 A GND VDD1V8 Z
*.PININFO A:B GND:B VDD1V8:B Z:B
MNMOS Z A GND GND eglvtnfet m=1 w=640n l=150.00n nf=1.0 ngcon=1 p_la=0 
+ ptwell=0 swacc=1 swrg=1 swrsub=1 mismatch=1
MPMOS Z A VDD1V8 GND eglvtpfet m=1 w=1u l=150.00n nf=1.0 ngcon=1 p_la=0 
+ ptwell=0 swacc=1 swrg=1 swrsub=1 mismatch=1
.ENDS

************************************************************************
* Library Name: vbbgen_PULPV3_monitor
* Cell Name:    inv1v8_x2
* View Name:    schematic
************************************************************************

.SUBCKT inv1v8_x2 A GND VDD1V8 Z
*.PININFO A:B GND:B VDD1V8:B Z:B
XI1 A GND VDD1V8 Z / inv1v8_x1
XI0 A GND VDD1V8 Z / inv1v8_x1
.ENDS

************************************************************************
* Library Name: vbbgen_PULPV3_monitor
* Cell Name:    inv1v8_x4
* View Name:    schematic
************************************************************************

.SUBCKT inv1v8_x4 A GND VDD1V8 Z
*.PININFO A:B GND:B VDD1V8:B Z:B
XI3 A GND VDD1V8 Z / inv1v8_x1
XI2 A GND VDD1V8 Z / inv1v8_x1
XI1 A GND VDD1V8 Z / inv1v8_x1
XI0 A GND VDD1V8 Z / inv1v8_x1
.ENDS

************************************************************************
* Library Name: vbbgen_PULPV3_monitor
* Cell Name:    pwellSampler_switch11_only_nmos
* View Name:    schematic
************************************************************************

.SUBCKT pwellSampler_switch11_only_nmos capIn fi11_n fi12_n pwellIn
*.PININFO fi11_n:I fi12_n:I capIn:B pwellIn:B
MNsw11 pwellIn fi11_n capIn fi12_n eglvtnfet m=1 w=10u l=150.00n nf=5.0 
+ ngcon=1 p_la=0 ptwell=0 swacc=-1 swrg=-1 swrsub=-1 mismatch=1
.ENDS

************************************************************************
* Library Name: vbbgen_PULPV3_monitor
* Cell Name:    pwellSampler_switch12
* View Name:    schematic
************************************************************************

.SUBCKT pwellSampler_switch12 GND cap fi12_n fi12_n_bb
*.PININFO fi12_n:I fi12_n_bb:I GND:B cap:B
MNsw12 GND fi12_n cap fi12_n_bb eglvtnfet m=1 w=6u l=150.00n nf=6.0 ngcon=1 
+ p_la=0 ptwell=0 swacc=-1 swrg=-1 swrsub=-1 mismatch=1
.ENDS

************************************************************************
* Library Name: vbbgen_PULPV3_monitor
* Cell Name:    pwellSampler_switch21
* View Name:    schematic
************************************************************************

.SUBCKT pwellSampler_switch21 GND cap fi21_p
*.PININFO fi21_p:I GND:B cap:B
MPsw21 GND fi21_p cap GND eglvtpfet m=1 w=8u l=150.00n nf=4.0 ngcon=1 p_la=0 
+ ptwell=0 swacc=-1 swrg=-1 swrsub=-1 mismatch=1
.ENDS

************************************************************************
* Library Name: vbbgen_PULPV3_monitor
* Cell Name:    pwellSampler_MoMcap
* View Name:    schematic
************************************************************************

.SUBCKT pwellSampler_MoMcap GND minus plus
*.PININFO GND:B minus:B plus:B
DD0 minus GND tdpdnw 50f perim=1.2u soa=1
DD1 GND plus tdndsx 50f perim=1.2u
XC0 minus plus cmom_6U1x_2U2x_2T8x_LB_2p nf_dirx=80 nf_diry=80 mtlfrbot=3 
+ mtlfrtop=5 mtlconbot=3 mtlcontop=5 spacefinger_mx=8e-08 wfinger_mx=8e-08 
+ fr_big_finger=0 m=1
.ENDS

************************************************************************
* Library Name: vbbgen_PULPV3_monitor
* Cell Name:    pwellSampler_wo22
* View Name:    schematic
************************************************************************

.SUBCKT pwellSampler_wo22 CflyTop GND fi11_n fi12_n fi12_n_bb fi21_p pwell 
+ pwell_inv_sample
*.PININFO fi11_n:I fi12_n:I fi12_n_bb:I fi21_p:I CflyTop:B GND:B pwell:B 
*.PININFO pwell_inv_sample:B
CC0 GND CflyTop Ccpl_TopGND $[CP]
CC2 pwell_inv_sample GND Ccpl_BotGND $[CP]
CC4 pwell_inv_sample CflyTop Cideal $[CP]
XI6 CflyTop fi11_n fi12_n pwell / pwellSampler_switch11_only_nmos
XI8 GND pwell_inv_sample fi12_n fi12_n_bb / pwellSampler_switch12
XI9 GND CflyTop fi21_p / pwellSampler_switch21
XI22 GND CflyTop pwell_inv_sample / pwellSampler_MoMcap
.ENDS

************************************************************************
* Library Name: vbbgen_PULPV3_monitor
* Cell Name:    cap_MoMonly1o5_60x60
* View Name:    schematic
************************************************************************

.SUBCKT cap_MoMonly1o5_60x60 GND minus plus
*.PININFO GND:B minus:B plus:B
DD1 GND GND tdndsx 50f perim=1.2u
XcMoM plus minus cmom_6U1x_2U2x_2T8x_LB_2p nf_dirx=60 nf_diry=60 mtlfrbot=1 
+ mtlfrtop=5 mtlconbot=1 mtlcontop=5 spacefinger_mx=8e-08 wfinger_mx=8e-08 
+ fr_big_finger=0 m=1
.ENDS

************************************************************************
* Library Name: vbbgen_PULPV3_monitor
* Cell Name:    inv1v8_x3
* View Name:    schematic
************************************************************************

.SUBCKT inv1v8_x3 A GND VDD1V8 Z
*.PININFO A:B GND:B VDD1V8:B Z:B
XI2 A GND VDD1V8 Z / inv1v8_x1
XI1 A GND VDD1V8 Z / inv1v8_x1