***
*** Generated for: eldoD
*** Generated on: May 24 16:10:56 2015
*** Design library name: vbbgen_PULPV3_tb
*** Design cell name: tb
*** Design view name: schematic
.GLOBAL
***.LIB /dkits/st/cmos28_fdsoi/2.5d/PDK_STM_cmos28FDSOI_AMS_6U1x_2U2x_2T8x_LB/2.5.d-08/DATA/MODELS/ELDO/CORNERS/corners

*** Library name: C28SOI_SC_12_COREPBP16_LL
*** Cell name: C12T28SOI_LL_IVX8_P16
*** View name: cmos_sch
.SUBCKT C12T28SOI_LL_IVX8_P16 A Z INH_GND INH_GNDS INH_VDD INH_VDDS
    XMP1 Z A INH_VDD INH_VDDS lvtpfet w=538.0n l=30.0n as={(76n)*(538.0n)
+} ad={(76n)*(538.0n)} nf={(1)*(1)} sa=(76n) sb=(76n) sd=96n ptwell=0
+p_la=16n ngcon=1 nsig_delvto_uo1=0 nsig_delvto_uo2=0 soa=1 swshe=0
+swacc=-1 swrg=-1 swrsub=-1 mismatch=1 m=1
    XMN1 Z A INH_GND INH_GNDS lvtnfet w=378.0n l=30.0n as={(76n)*(378.0n)
+} ad={(76n)*(378.0n)} nf={(1)*(1)} sa=(76n) sb=(76n) sd=96n ptwell=0
+p_la=16n ngcon=1 nsig_delvto_uo1=0 nsig_delvto_uo2=0 soa=1 swshe=0
+swacc=-1 swrg=-1 swrsub=-1 mismatch=1 m=1
.ENDS
*** End of subcircuit definition.

*** Library name: C28SOI_SC_12_COREPBP16_LL
*** Cell name: C12T28SOI_LL_IVX4_P16
*** View name: cmos_sch
.SUBCKT C12T28SOI_LL_IVX4_P16 A Z INH_GND INH_GNDS INH_VDD INH_VDDS
    XMN1 Z A INH_GND INH_GNDS lvtnfet w=196.0n l=30.0n as={(76n)*(196.0n)
+} ad={(76n)*(196.0n)} nf={(1)*(1)} sb={(76n)+(0)} sd=96n ptwell=0 par=1
+p_la=16n ngcon=1 nsig_delvto_uo1=0 nsig_delvto_uo2=0 soa=1 swshe=0
+swacc=-1 swrg=-1 swrsub=-1 mismatch=1 m=1
    XMP1 Z A INH_VDD INH_VDDS lvtpfet w=286.0n l=30.0n as={(76n)*(286.0n)
+} ad={(76n)*(286.0n)} nf={(1)*(1)} sa=(76n) sb=(76n) sd=96n ptwell=0
+p_la=16n ngcon=1 nsig_delvto_uo1=0 nsig_delvto_uo2=0 soa=1 swshe=0
+swacc=-1 swrg=-1 swrsub=-1 mismatch=1 m=1
.ENDS
*** End of subcircuit definition.

*** Library name: vbbgen_PULPV3_driver
*** Cell name: levelShifter_wBuffers
*** View name: schematic
.SUBCKT LEVELSHIFTER_WBUFFERS GND VDD VDD1V8 IN IN1V8
    XN42 IN1V8 NET037 GND GND eglvtnfet w=3.5u l=150n as=343.00f
+ad=343.00f nf={(1)*(1)} sa=1.8u sb=1.8u sd=140n ptwell=0 par=1 p_la=0
+ngcon=2 nsig_delvto_uo1=0 nsig_delvto_uo2=0 soa=1 swshe=0 swacc=1 swrg=1
+swrsub=1 mismatch=1 m=1
    XN44 NET035 NET033 GND GND eglvtnfet w=700n l=150n as=68.6f ad=68.6f
+nf={(1)*(1)} sa=1.8u sb=1.8u sd=140n ptwell=0 par=1 p_la=0 ngcon=2
+nsig_delvto_uo1=0 nsig_delvto_uo2=0 soa=1 swshe=0 swacc=1 swrg=1 swrsub=1
+mismatch=1 m=1
    XN45 NET033 LS_OUT GND GND eglvtnfet w=350n l=150n as=34.3f ad=34.3f
+nf={(1)*(1)} sa=1.8u sb=1.8u sd=140n ptwell=0 par=1 p_la=0 ngcon=2
+nsig_delvto_uo1=0 nsig_delvto_uo2=0 soa=1 swshe=0 swacc=1 swrg=1 swrsub=1
+mismatch=1 m=1
    XN43 NET037 NET035 GND GND eglvtnfet w=1.4u l=150n as=137.2f ad=137.2f
+nf={(1)*(1)} sa=1.8u sb=1.8u sd=140n ptwell=0 par=1 p_la=0 ngcon=2
+nsig_delvto_uo1=0 nsig_delvto_uo2=0 soa=1 swshe=0 swacc=1 swrg=1 swrsub=1
+mismatch=1 m=1
    XNMOS_SELB LS_OUT INB_D2 GND GND eglvtnfet w=500n l=150.00n
+as={((120n)+(0))*(500n) } ad={((120n)+(0))*(500n)} nf={(1)*(1)}
+sa={(120n)+(0)} sb={(120n)+(0)} sd=140n ptwell=0 par=1 p_la=0 ngcon=1
+nsig_delvto_uo1=0 nsig_delvto_uo2=0 soa=1 swshe=0 swacc=1 swrg=1 swrsub=1
+mismatch=1 m=1
    XNMOS_SEL INB1V8 IN_D2 GND GND eglvtnfet w=500n l=150.00n
+as={((120n)+(0))*(500n) } ad={((120n)+(0))*(500n)} nf={(1)*(1)}
+sa={(120n)+(0)} sb={(120n)+(0)} sd=140n ptwell=0 par=1 p_la=0 ngcon=1
+nsig_delvto_uo1=0 nsig_delvto_uo2=0 soa=1 swshe=0 swacc=1 swrg=1 swrsub=1
+mismatch=1 m=1
    XP39 NET033 LS_OUT VDD1V8 GND eglvtpfet w=500n l=150n as=49.0f
+ad=49.0f nf=4 sa=1.8u sb=1.8u sd=140n ptwell=0 par=1 p_la=0 ngcon=1
+nsig_delvto_uo1=0 nsig_delvto_uo2=0 soa=1 swshe=0 swacc=1 swrg=1 swrsub=1
+mismatch=1 m=1
    XP37 NET037 NET035 VDD1V8 GND eglvtpfet w=2u l=150n as=196.00f
+ad=196.00f nf=4 sa=1.8u sb=1.8u sd=140n ptwell=0 par=1 p_la=0 ngcon=1
+nsig_delvto_uo1=0 nsig_delvto_uo2=0 soa=1 swshe=0 swacc=1 swrg=1 swrsub=1
+mismatch=1 m=1
    XP36 IN1V8 NET037 VDD1V8 GND eglvtpfet w=5u l=150n as=490.0f ad=490.0f
+nf=4 sa=1.8u sb=1.8u sd=140n ptwell=0 par=1 p_la=0 ngcon=1
+nsig_delvto_uo1=0 nsig_delvto_uo2=0 soa=1 swshe=0 swacc=1 swrg=1 swrsub=1
+mismatch=1 m=1
    XP38 NET035 NET033 VDD1V8 GND eglvtpfet w=1u l=150n as=98.0f ad=98.0f
+nf=4 sa=1.8u sb=1.8u sd=140n ptwell=0 par=1 p_la=0 ngcon=1
+nsig_delvto_uo1=0 nsig_delvto_uo2=0 soa=1 swshe=0 swacc=1 swrg=1 swrsub=1
+mismatch=1 m=1
    XPMOS_SELB_UP SELBMID INB1V8 VDD1V8 GND eglvtpfet w=500n l=150.00n
+as={((120n)+(0))*(500n) } ad={((120n)+(0))*(500n)} nf={(1)*(1)}
+sa={(120n)+(0)} sb={(120n)+(0)} sd=140n ptwell=0 par=1 p_la=0 ngcon=1
+nsig_delvto_uo1=0 nsig_delvto_uo2=0 soa=1 swshe=0 swacc=1 swrg=1 swrsub=1
+mismatch=1 m=1
    XPMOS_SELB_MID LS_OUT INB_D2 SELBMID GND eglvtpfet w=500n l=150.00n
+as={((120n)+(0))*(500n) } ad={((120n)+(0))*(500n)} nf={(1)*(1)}
+sa={(120n)+(0)} sb={(120n)+(0)} sd=140n ptwell=0 par=1 p_la=0 ngcon=1
+nsig_delvto_uo1=0 nsig_delvto_uo2=0 soa=1 swshe=0 swacc=1 swrg=1 swrsub=1
+mismatch=1 m=1
    XPMOS_SEL_UP SELMID LS_OUT VDD1V8 GND eglvtpfet w=500n l=150.00n
+as={((120n)+(0))*(500n) } ad={((120n)+(0))*(500n)} nf={(1)*(1)}
+sa={(120n)+(0)} sb={(120n)+(0)} sd=140n ptwell=0 par=1 p_la=0 ngcon=1
+nsig_delvto_uo1=0 nsig_delvto_uo2=0 soa=1 swshe=0 swacc=1 swrg=1 swrsub=1
+mismatch=1 m=1
    XPMOS_SEL_MID INB1V8 IN_D2 SELMID GND eglvtpfet w=500n l=150.00n
+as={((120n)+(0))*(500n) } ad={((120n)+(0))*(500n)} nf={(1)*(1)}
+sa={(120n)+(0)} sb={(120n)+(0)} sd=140n ptwell=0 par=1 p_la=0 ngcon=1
+nsig_delvto_uo1=0 nsig_delvto_uo2=0 soa=1 swshe=0 swacc=1 swrg=1 swrsub=1
+mismatch=1 m=1
    XI0 NET21 IN_D2 GND GND VDD GND C12T28SOI_LL_IVX8_P16
    XI173 IN_D2 INB_D2 GND GND VDD GND C12T28SOI_LL_IVX8_P16
    XI1 IN NET21 GND GND VDD GND C12T28SOI_LL_IVX4_P16
    XANTDIODE GND VDD tdndsx area=50f perim=1.2u soa=1
    XD0 GND VDD1V8 egtdndsx area=50f perim=1.2u soa=1
.ENDS
*** End of subcircuit definition.

*** Library name: vbbgen_PULPV3_driver
*** Cell name: pwellCharger
*** View name: schematic
.SUBCKT PWELLCHARGER GND VDD VDD1V8 PULLLEFT PULLRIGHT PWELL
    XANTDBOT_B CFLY_BOT_2 VDD1V8 egtdpdnw area=100f perim=2.2u soa=1
    XANTDBOT_A CFLY_BOT VDD1V8 egtdpdnw area=100f perim=2.2u soa=1
XBCFLY CFLY_BOT_2 CFLY_TOP_2 cmom_6U1x_2U2x_2T8x_LB_2p nf_dirx=160
+nf_diry=250 mtlfrbot=1 mtlfrtop=5 mtlconbot=2 mtlcontop=2
+spacefinger_mx=8e-08 wfinger_mx=8e-08 mismatch=1 mult=1
+pre_layout_local=-1 dc_mdev=0 fr_big_finger=0 soa=1
XACS GBOT GTOP cmom_6U1x_2U2x_2T8x_LB_2p nf_dirx=80 nf_diry=125 mtlfrbot=1
+mtlfrtop=5 mtlconbot=2 mtlcontop=2 spacefinger_mx=8e-08 wfinger_mx=8e-08
+mismatch=1 mult=1 pre_layout_local=-1 dc_mdev=0 fr_big_finger=0 soa=1
XBCS GBOT_2 GTOP_2 cmom_6U1x_2U2x_2T8x_LB_2p nf_dirx=80 nf_diry=125
+mtlfrbot=1 mtlfrtop=5 mtlconbot=2 mtlcontop=2 spacefinger_mx=8e-08
+wfinger_mx=8e-08 mismatch=1 mult=1 pre_layout_local=-1 dc_mdev=0
+fr_big_finger=0 soa=1
XACFLY CFLY_BOT CFLY_TOP cmom_6U1x_2U2x_2T8x_LB_2p nf_dirx=160 nf_diry=250
+mtlfrbot=1 mtlfrtop=5 mtlconbot=2 mtlcontop=2 spacefinger_mx=8e-08
+wfinger_mx=8e-08 mismatch=1 mult=1 pre_layout_local=-1 dc_mdev=0
+fr_big_finger=0 soa=1
    XLSB GND VDD VDD1V8 PULLRIGHT NET026 LEVELSHIFTER_WBUFFERS
    XLSA GND VDD VDD1V8 PULLLEFT NET025 LEVELSHIFTER_WBUFFERS
    XBP1 GND GBOT_2 CFLY_BOT_2 GND eglvtpfet w=20u l=150.00n as=1.96p
+ad=1.96p nf={(1)*(1)} sa=1.8u sb=1.8u sd=140n ptwell=0 par=1 p_la=0
+ngcon=1 nsig_delvto_uo1=0 nsig_delvto_uo2=0 soa=1 swshe=0 swacc=1 swrg=1
+swrsub=1 mismatch=1 m=1
    XAP4 GBOT GBOT_2 GND GND eglvtpfet w=1u l=150.00n as=98.0f ad=98.0f
+nf={(1)*(1)} sa=1.8u sb=1.8u sd=140n ptwell=0 par=1 p_la=0 ngcon=1
+nsig_delvto_uo1=0 nsig_delvto_uo2=0 soa=1 swshe=0 swacc=1 swrg=1 swrsub=1
+mismatch=1 m=1
    XBP3 GTOP_2 NET026 VDD1V8 GND eglvtpfet w=20u l=150n as=1.96p ad=1.96p
+nf=4 sa=1.8u sb=1.8u sd=140n ptwell=0 par=1 p_la=0 ngcon=1
+nsig_delvto_uo1=0 nsig_delvto_uo2=0 soa=1 swshe=0 swacc=1 swrg=1 swrsub=1
+mismatch=1 m=1
    XBP2 VDD1V8 GTOP_2 CFLY_TOP_2 GND eglvtpfet w=20u l=150.00n as=1.96p
+ad=1.96p nf={(1)*(1)} sa=1.8u sb=1.8u sd=140n ptwell=0 par=1 p_la=0
+ngcon=1 nsig_delvto_uo1=0 nsig_delvto_uo2=0 soa=1 swshe=0 swacc=1 swrg=1
+swrsub=1 mismatch=1 m=1
    XAP3 GTOP NET025 VDD1V8 GND eglvtpfet w=19.998u l=150n as=1.9598p
+ad=1.9598p nf=4 sa=1.8u sb=1.8u sd=140n ptwell=0 par=1 p_la=0 ngcon=1
+nsig_delvto_uo1=0 nsig_delvto_uo2=0 soa=1 swshe=0 swacc=1 swrg=1 swrsub=1
+mismatch=1 m=1
    XAD GBOT GND GND GND eglvtpfet w=1u l=150.00n as=98.0f ad=98.0f
+nf={(1)*(1)} sa=1.8u sb=1.8u sd=140n ptwell=0 par=1 p_la=0 ngcon=1
+nsig_delvto_uo1=0 nsig_delvto_uo2=0 soa=1 swshe=0 swacc=1 swrg=1 swrsub=1
+mismatch=1 m=1
    XBD GBOT_2 GND GND GND eglvtpfet w=1u l=150.00n as=98.0f ad=98.0f
+nf={(1)*(1)} sa=1.8u sb=1.8u sd=140n ptwell=0 par=1 p_la=0 ngcon=1
+nsig_delvto_uo1=0 nsig_delvto_uo2=0 soa=1 swshe=0 swacc=1 swrg=1 swrsub=1
+mismatch=1 m=1
    XBP4 GBOT_2 GBOT GND GND eglvtpfet w=1u l=150.00n as=98.0f ad=98.0f
+nf={(1)*(1)} sa=1.8u sb=1.8u sd=140n ptwell=0 par=1 p_la=0 ngcon=1
+nsig_delvto_uo1=0 nsig_delvto_uo2=0 soa=1 swshe=0 swacc=1 swrg=1 swrsub=1
+mismatch=1 m=1
    XAP1 GND GBOT CFLY_BOT GND eglvtpfet w=20u l=150.00n as=1.96p ad=1.96p
+nf={(1)*(1)} sa=1.8u sb=1.8u sd=140n ptwell=0 par=1 p_la=0 ngcon=1
+nsig_delvto_uo1=0 nsig_delvto_uo2=0 soa=1 swshe=0 swacc=1 swrg=1 swrsub=1
+mismatch=1 m=1
    XAP2 VDD1V8 GTOP CFLY_TOP GND eglvtpfet w=20u l=150.00n as=1.96p
+ad=1.96p nf={(1)*(1)} sa=1.8u sb=1.8u sd=140n ptwell=0 par=1 p_la=0
+ngcon=1 nsig_delvto_uo1=0 nsig_delvto_uo2=0 soa=1 swshe=0 swacc=1 swrg=1
+swrsub=1 mismatch=1 m=1
    XANTDTOP_A GND CFLY_TOP egtdndsx area=100f perim=2.2u soa=1
    XANTDTOP_B GND CFLY_TOP_2 egtdndsx area=100f perim=2.2u soa=1
    XBN1 PWELL GBOT_2 CFLY_BOT_2 GTOP_2 eglvtnfet w=10u l=150.00n
+as=980.0f ad=980.0f nf={(1)*(1)} sa=1.8u sb=1.8u sd=140n ptwell=0 par=1
+p_la=0 ngcon=1 nsig_delvto_uo1=0 nsig_delvto_uo2=0 soa=1 swshe=0 swacc=1
+swrg=1 swrsub=1 mismatch=1 m=1
    XBN3 GTOP_2 NET026 GND GND eglvtnfet w=14u l=150n as=1.372p ad=1.372p
+nf={(1)*(1)} sa=1.8u sb=1.8u sd=140n ptwell=0 par=1 p_la=0 ngcon=2
+nsig_delvto_uo1=0 nsig_delvto_uo2=0 soa=1 swshe=0 swacc=1 swrg=1 swrsub=1
+mismatch=1 m=1
    XAN2 GND GTOP CFLY_TOP GTOP eglvtnfet w=10u l=150.00n as=980.0f
+ad=980.0f nf={(1)*(1)} sa=1.8u sb=1.8u sd=140n ptwell=0 par=1 p_la=0
+ngcon=1 nsig_delvto_uo1=0 nsig_delvto_uo2=0 soa=1 swshe=0 swacc=1 swrg=1
+swrsub=1 mismatch=1 m=1
    XAN1 PWELL GBOT CFLY_BOT GTOP eglvtnfet w=10u l=150.00n as=980.0f
+ad=980.0f nf={(1)*(1)} sa=1.8u sb=1.8u sd=140n ptwell=0 par=1 p_la=0
+ngcon=1 nsig_delvto_uo1=0 nsig_delvto_uo2=0 soa=1 swshe=0 swacc=1 swrg=1
+swrsub=1 mismatch=1 m=1
    XAN3 GTOP NET025 GND GND eglvtnfet w=14.004u l=150n as=1.04563p
+ad=980.28f nf=1 sa=1.8u sb=1.8u sd=140n ptwell=0 par=1 p_la=0 ngcon=1
+nsig_delvto_uo1=0 nsig_delvto_uo2=0 soa=1 swshe=0 swacc=1 swrg=1 swrsub=1
+mismatch=1 m=1
    XBN2 GND GTOP_2 CFLY_TOP_2 GTOP_2 eglvtnfet w=10u l=150.00n as=980.0f
+ad=980.0f nf={(1)*(1)} sa=1.8u sb=1.8u sd=140n ptwell=0 par=1 p_la=0
+ngcon=1 nsig_delvto_uo1=0 nsig_delvto_uo2=0 soa=1 swshe=0 swacc=1 swrg=1
+swrsub=1 mismatch=1 m=1
.ENDS
*** End of subcircuit definition.

*** Library name: vbbgen_PULPV3_driver
*** Cell name: pwellDischargeChargePositive
*** View name: schematic
.SUBCKT PWELLDISCHARGECHARGEPOSITIVE GND VDD VDD1V8 NENABLE PULLGND
+PULLVDD PWELL
XC1 GBOT NENABLE cmom_6U1x_2U2x_2T8x_LB_2p nf_dirx=150 nf_diry=68
+mtlfrbot=1 mtlfrtop=5 mtlconbot=2 mtlcontop=2 spacefinger_mx=8e-08
+wfinger_mx=8e-08 mismatch=1 mult=1 pre_layout_local=-1 dc_mdev=0
+fr_big_finger=0 soa=1
XC0 GBOT_2 GTOP_2 cmom_6U1x_2U2x_2T8x_LB_2p nf_dirx=20 nf_diry=16
+mtlfrbot=1 mtlfrtop=5 mtlconbot=2 mtlcontop=2 spacefinger_mx=8e-08
+wfinger_mx=8e-08 mismatch=1 mult=1 pre_layout_local=-1 dc_mdev=0
+fr_big_finger=0 soa=1
    XP36 PWELL GBOT PW_CH_DCH GND eglvtpfet w=7.5u l=150n as=735.00f
+ad=735.00f nf=1 sa=1.8u sb=1.8u sd=140n ptwell=0 par=4 p_la=0 ngcon=1
+nsig_delvto_uo1=0 nsig_delvto_uo2=0 soa=1 swshe=0 swacc=1 swrg=1 swrsub=1
+mismatch=1 m=4
    XP37 PW_CH_DCH PULLVDD VDD GND eglvtpfet w=7.5u l=150n as=735.00f
+ad=735.00f nf=4 sa=1.8u sb=1.8u sd=140n ptwell=0 par=2 p_la=0 ngcon=1
+nsig_delvto_uo1=0 nsig_delvto_uo2=0 soa=1 swshe=0 swacc=1 swrg=1 swrsub=1
+mismatch=1 m=2
    XANTDIODE GND NENABLE tdndsx area=50f perim=1.2u soa=1
    XN43 PW_CH_DCH PULLGND GND GND eglvtnfet w=7u l=150n as=686.00f
+ad=686.00f nf={(1)*(1)} sa=1.8u sb=1.8u sd=140n ptwell=0 par=1 p_la=0
+ngcon=1 nsig_delvto_uo1=0 nsig_delvto_uo2=0 soa=1 swshe=0 swacc=1 swrg=1
+swrsub=1 mismatch=1 m=1
    XN48 GTOP_2 NENABLE GND GND nfet w=700n l=30n as=58.8f ad=49.0f nf=1
+sa=1.8u sb=1.8u sd=96n ptwell=0 par=1 p_la=0 ngcon=1 nsig_delvto_uo1=0
+nsig_delvto_uo2=0 soa=1 swshe=0 swacc=1 swrg=1 swrsub=1 mismatch=1 m=1
    XP45 GTOP_2 NENABLE VDD VDD1V8 pfet w=1.002u l=30n as=79.492f
+ad=70.14f nf={(6)*(1)} sa=1.8u sb=1.8u sd=96n ptwell=0 par=1 p_la=0
+ngcon=1 nsig_delvto_uo1=0 nsig_delvto_uo2=0 soa=1 swshe=0 swacc=1 swrg=1
+swrsub=1 mismatch=1 m=1
    XP46 GBOT GBOT_2 GND VDD1V8 pfet w=100n l=150n as=9.8f ad=9.8f
+nf={(1)*(1)} sa=1.8u sb=1.8u sd=96n ptwell=0 par=1 p_la=0 ngcon=1
+nsig_delvto_uo1=0 nsig_delvto_uo2=0 soa=1 swshe=0 swacc=1 swrg=1 swrsub=1
+mismatch=1 m=1
    XP47 GBOT GND GND VDD1V8 pfet w=100n l=150n as=9.8f ad=9.8f
+nf={(1)*(1)} sa=1.8u sb=1.8u sd=96n ptwell=0 par=1 p_la=0 ngcon=1
+nsig_delvto_uo1=0 nsig_delvto_uo2=0 soa=1 swshe=0 swacc=1 swrg=1 swrsub=1
+mismatch=1 m=1
    XP44 GBOT_2 GND GND VDD1V8 pfet w=100n l=150n as=9.8f ad=9.8f
+nf={(1)*(1)} sa=1.8u sb=1.8u sd=96n ptwell=0 par=1 p_la=0 ngcon=1
+nsig_delvto_uo1=0 nsig_delvto_uo2=0 soa=1 swshe=0 swacc=1 swrg=1 swrsub=1
+mismatch=1 m=1
    XP43 GBOT_2 GBOT GND VDD1V8 pfet w=100n l=150n as=9.8f ad=9.8f
+nf={(1)*(1)} sa=1.8u sb=1.8u sd=96n ptwell=0 par=1 p_la=0 ngcon=1
+nsig_delvto_uo1=0 nsig_delvto_uo2=0 soa=1 swshe=0 swacc=1 swrg=1 swrsub=1
+mismatch=1 m=1
.ENDS
*** End of subcircuit definition.

*** Library name: C28SOI_SC_12_COREPBP10_LR
*** Cell name: C12T28SOI_LR_NAND2AX3_P10
*** View name: cmos_sch
.SUBCKT C12T28SOI_LR_NAND2AX3_P10 A B Z INH_GND INH_GNDS INH_VDD INH_VDDS
    XM3 Z SN1 INH_VDD INH_VDDS pfet w=286.0n l=30.0n as={(76n)*(286.0n) }
+ad={(76n)*(286.0n)} nf={(1)*(1)} sa=(76n) sb=(76n) sd=96n ptwell=0
+p_la=10n ngcon=1 nsig_delvto_uo1=0 nsig_delvto_uo2=0 soa=1 swshe=0
+swacc=-1 swrg=-1 swrsub=-1 mismatch=1 m=1
    XM4 Z B INH_VDD INH_VDDS pfet w=286.0n l=30.0n as={(76n)*(286.0n) }
+ad={(76n)*(286.0n)} nf={(1)*(1)} sa=(76n) sb=(76n) sd=96n ptwell=0
+p_la=10n ngcon=1 nsig_delvto_uo1=0 nsig_delvto_uo2=0 soa=1 swshe=0
+swacc=-1 swrg=-1 swrsub=-1 mismatch=1 m=1
    XM0 SN1 A INH_VDD INH_VDDS pfet w=286.0n l=30.0n as={(76n)*(286.0n) }
+ad={(76n)*(286.0n)} nf={(1)*(1)} sa=(76n) sb=(76n) sd=96n ptwell=0
+p_la=10n ngcon=1 nsig_delvto_uo1=0 nsig_delvto_uo2=0 soa=1 swshe=0
+swacc=-1 swrg=-1 swrsub=-1 mismatch=1 m=1
    XM5 Z B PN2 INH_GNDS nfet w=196.0n l=30.0n as={(76n)*(196.0n) }
+ad={(76n)*(196.0n)} nf={(1)*(1)} sb=(76n) sd=96n ptwell=0 p_la=10n
+ngcon=1 nsig_delvto_uo1=0 nsig_delvto_uo2=0 soa=1 swshe=0 swacc=-1
+swrg=-1 swrsub=-1 mismatch=1 m=1
    XM6 PN2 SN1 INH_GND INH_GNDS nfet w=196.0n l=30.0n as={(76n)*(196.0n)
+} ad={(76n)*(196.0n)} nf={(1)*(1)} sb=(76n) sd=96n ptwell=0 p_la=10n
+ngcon=1 nsig_delvto_uo1=0 nsig_delvto_uo2=0 soa=1 swshe=0 swacc=-1
+swrg=-1 swrsub=-1 mismatch=1 m=1
    XM1 SN1 A INH_GND INH_GNDS nfet w=196.0n l=30.0n as={(76n)*(196.0n) }
+ad={(76n)*(196.0n)} nf={(1)*(1)} sb=(76n) sd=96n ptwell=0 p_la=10n
+ngcon=1 nsig_delvto_uo1=0 nsig_delvto_uo2=0 soa=1 swshe=0 swacc=-1
+swrg=-1 swrsub=-1 mismatch=1 m=1
.ENDS
*** End of subcircuit definition.

*** Library name: C28SOI_SC_12_COREPBP10_LR
*** Cell name: C12T28SOI_LR_BFX4_P10
*** View name: cmos_sch
.SUBCKT C12T28SOI_LR_BFX4_P10 A Z INH_GND INH_GNDS INH_VDD INH_VDDS
    XM4 NET023 A INH_VDD INH_VDDS pfet w=286.0n l=30.0n as={(76n)*(286.0n)
+} ad={(76n)*(286.0n)} nf={(1)*(1)} sb=(76n) sd=96n ptwell=0 p_la=10n
+ngcon=1 nsig_delvto_uo1=0 nsig_delvto_uo2=0 soa=1 swshe=0 swacc=-1
+swrg=-1 swrsub=-1 mismatch=1 m=1
    XM20 Z NET023 INH_VDD INH_VDDS pfet w=286.0n l=30.0n
+as={(76n)*(286.0n) } ad={(76n)*(286.0n)} nf={(1)*(1)} sb=(76n) sd=96n
+ptwell=0 p_la=10n ngcon=1 nsig_delvto_uo1=0 nsig_delvto_uo2=0 soa=1
+swshe=0 swacc=-1 swrg=-1 swrsub=-1 mismatch=1 m=1
    XM1 NET023 A INH_GND INH_GNDS nfet w=196.0n l=30.0n as={(76n)*(196.0n)
+} ad={(76n)*(196.0n)} nf={(1)*(1)} sb=(76n) sd=96n ptwell=0 p_la=10n
+ngcon=1 nsig_delvto_uo1=0 nsig_delvto_uo2=0 soa=1 swshe=0 swacc=-1
+swrg=-1 swrsub=-1 mismatch=1 m=1
    XM19 Z NET023 INH_GND INH_GNDS nfet w=196.0n l=30.0n
+as={(76n)*(196.0n) } ad={(76n)*(196.0n)} nf={(1)*(1)} sb=(76n) sd=96n
+ptwell=0 p_la=10n ngcon=1 nsig_delvto_uo1=0 nsig_delvto_uo2=0 soa=1
+swshe=0 swacc=-1 swrg=-1 swrsub=-1 mismatch=1 m=1
.ENDS
*** End of subcircuit definition.

*** Library name: C28SOI_SC_12_COREPBP10_LR
*** Cell name: C12T28SOI_LR_BFX33_P10
*** View name: cmos_sch
.SUBCKT C12T28SOI_LR_BFX33_P10 A Z INH_GND INH_GNDS INH_VDD INH_VDDS
    XM4 NET65 A INH_VDD INH_VDDS pfet w=349.0n l=30.0n as={(76n)*(349.0n)
+} ad={(76n)*(349.0n)} nf={(1)*(1)} sb=(76n) sd=96n ptwell=0 p_la=10n
+ngcon=1 nsig_delvto_uo1=0 nsig_delvto_uo2=0 soa=1 swshe=0 swacc=-1
+swrg=-1 swrsub=-1 mismatch=1 m=1
    XM32 NET65 A INH_VDD INH_VDDS pfet w=349.0n l=30.0n as={(76n)*(349.0n)
+} ad={(76n)*(349.0n)} nf={(1)*(1)} sb=(76n) sd=96n ptwell=0 p_la=10n
+ngcon=1 nsig_delvto_uo1=0 nsig_delvto_uo2=0 soa=1 swshe=0 swacc=-1
+swrg=-1 swrsub=-1 mismatch=1 m=1
    XM20 Z NET65 INH_VDD INH_VDDS pfet w=552.0n l=30.0n as={(76n)*(552.0n)
+} ad={(76n)*(552.0n)} nf={(1)*(1)} sb=(76n) sd=96n ptwell=0 p_la=10n
+ngcon=1 nsig_delvto_uo1=0 nsig_delvto_uo2=0 soa=1 swshe=0 swacc=-1
+swrg=-1 swrsub=-1 mismatch=1 m=1
    XM30 Z NET65 INH_VDD INH_VDDS pfet w=552.0n l=30.0n as={(76n)*(552.0n)
+} ad={(76n)*(552.0n)} nf={(1)*(1)} sb=(76n) sd=96n ptwell=0 p_la=10n
+ngcon=1 nsig_delvto_uo1=0 nsig_delvto_uo2=0 soa=1 swshe=0 swacc=-1
+swrg=-1 swrsub=-1 mismatch=1 m=1
    XM28 Z NET65 INH_VDD INH_VDDS pfet w=552.0n l=30.0n as={(76n)*(552.0n)
+} ad={(76n)*(552.0n)} nf={(1)*(1)} sb=(76n) sd=96n ptwell=0 p_la=10n
+ngcon=1 nsig_delvto_uo1=0 nsig_delvto_uo2=0 soa=1 swshe=0 swacc=-1
+swrg=-1 swrsub=-1 mismatch=1 m=1
    XM26 Z NET65 INH_VDD INH_VDDS pfet w=552.0n l=30.0n as={(76n)*(552.0n)
+} ad={(76n)*(552.0n)} nf={(1)*(1)} sb=(76n) sd=96n ptwell=0 p_la=10n
+ngcon=1 nsig_delvto_uo1=0 nsig_delvto_uo2=0 soa=1 swshe=0 swacc=-1
+swrg=-1 swrsub=-1 mismatch=1 m=1
    XM1 NET65 A INH_GND INH_GNDS nfet w=254.0n l=30.0n as={(76n)*(254.0n)
+} ad={(76n)*(254.0n)} nf={(1)*(1)} sb=(76n) sd=96n ptwell=0 p_la=10n
+ngcon=1 nsig_delvto_uo1=0 nsig_delvto_uo2=0 soa=1 swshe=0 swacc=-1
+swrg=-1 swrsub=-1 mismatch=1 m=1
    XM31 NET65 A INH_GND INH_GNDS nfet w=254.0n l=30.0n as={(76n)*(254.0n)
+} ad={(76n)*(254.0n)} nf={(1)*(1)} sb=(76n) sd=96n ptwell=0 p_la=10n
+ngcon=1 nsig_delvto_uo1=0 nsig_delvto_uo2=0 soa=1 swshe=0 swacc=-1
+swrg=-1 swrsub=-1 mismatch=1 m=1
    XM29 Z NET65 INH_GND INH_GNDS nfet w=392.0n l=30.0n as={(76n)*(392.0n)
+} ad={(76n)*(392.0n)} nf={(1)*(1)} sb=(76n) sd=96n ptwell=0 p_la=10n
+ngcon=1 nsig_delvto_uo1=0 nsig_delvto_uo2=0 soa=1 swshe=0 swacc=-1
+swrg=-1 swrsub=-1 mismatch=1 m=1
    XM19 Z NET65 INH_GND INH_GNDS nfet w=392.0n l=30.0n as={(76n)*(392.0n)
+} ad={(76n)*(392.0n)} nf={(1)*(1)} sb=(76n) sd=96n ptwell=0 p_la=10n
+ngcon=1 nsig_delvto_uo1=0 nsig_delvto_uo2=0 soa=1 swshe=0 swacc=-1
+swrg=-1 swrsub=-1 mismatch=1 m=1
    XM27 Z NET65 INH_GND INH_GNDS nfet w=392.0n l=30.0n as={(76n)*(392.0n)
+} ad={(76n)*(392.0n)} nf={(1)*(1)} sb=(76n) sd=96n ptwell=0 p_la=10n
+ngcon=1 nsig_delvto_uo1=0 nsig_delvto_uo2=0 soa=1 swshe=0 swacc=-1
+swrg=-1 swrsub=-1 mismatch=1 m=1
    XM25 Z NET65 INH_GND INH_GNDS nfet w=392.0n l=30.0n as={(76n)*(392.0n)
+} ad={(76n)*(392.0n)} nf={(1)*(1)} sb=(76n) sd=96n ptwell=0 p_la=10n
+ngcon=1 nsig_delvto_uo1=0 nsig_delvto_uo2=0 soa=1 swshe=0 swacc=-1
+swrg=-1 swrsub=-1 mismatch=1 m=1
.ENDS
*** End of subcircuit definition.

*** Library name: C28SOI_SC_12_COREPBP10_LR
*** Cell name: C12T28SOI_LR_BFX50_P10
*** View name: cmos_sch
.SUBCKT C12T28SOI_LR_BFX50_P10 A Z INH_GND INH_GNDS INH_VDD INH_VDDS
    XMP0 Z NET75 INH_VDD INH_VDDS pfet w=552.0n l=30.0n as={(76n)*(552.0n)
+} ad={(76n)*(552.0n)} nf={(1)*(1)} sb=(76n) sd=96n ptwell=0 p_la=10n
+ngcon=1 nsig_delvto_uo1=0 nsig_delvto_uo2=0 soa=1 swshe=0 swacc=-1
+swrg=-1 swrsub=-1 mismatch=1 m=1
    XM4 NET75 A INH_VDD INH_VDDS pfet w=552.0n l=30.0n as={(76n)*(552.0n)
+} ad={(76n)*(552.0n)} nf={(1)*(1)} sb=(76n) sd=96n ptwell=0 p_la=10n
+ngcon=1 nsig_delvto_uo1=0 nsig_delvto_uo2=0 soa=1 swshe=0 swacc=-1
+swrg=-1 swrsub=-1 mismatch=1 m=1
    XM32 NET75 A INH_VDD INH_VDDS pfet w=552.0n l=30.0n as={(76n)*(552.0n)
+} ad={(76n)*(552.0n)} nf={(1)*(1)} sb=(76n) sd=96n ptwell=0 p_la=10n
+ngcon=1 nsig_delvto_uo1=0 nsig_delvto_uo2=0 soa=1 swshe=0 swacc=-1
+swrg=-1 swrsub=-1 mismatch=1 m=1
    XM20 Z NET75 INH_VDD INH_VDDS pfet w=552.0n l=30.0n as={(76n)*(552.0n)
+} ad={(76n)*(552.0n)} nf={(1)*(1)} sb=(76n) sd=96n ptwell=0 p_la=10n
+ngcon=1 nsig_delvto_uo1=0 nsig_delvto_uo2=0 soa=1 swshe=0 swacc=-1
+swrg=-1 swrsub=-1 mismatch=1 m=1
    XM30 Z NET75 INH_VDD INH_VDDS pfet w=552.0n l=30.0n as={(76n)*(552.0n)
+} ad={(76n)*(552.0n)} nf={(1)*(1)} sb=(76n) sd=96n ptwell=0 p_la=10n
+ngcon=1 nsig_delvto_uo1=0 nsig_delvto_uo2=0 soa=1 swshe=0 swacc=-1
+swrg=-1 swrsub=-1 mismatch=1 m=1
    XM28 Z NET75 INH_VDD INH_VDDS pfet w=552.0n l=30.0n as={(76n)*(552.0n)
+} ad={(76n)*(552.0n)} nf={(1)*(1)} sb=(76n) sd=96n ptwell=0 p_la=10n
+ngcon=1 nsig_delvto_uo1=0 nsig_delvto_uo2=0 soa=1 swshe=0 swacc=-1
+swrg=-1 swrsub=-1 mismatch=1 m=1
    XM26 Z NET75 INH_VDD INH_VDDS pfet w=552.0n l=30.0n as={(76n)*(552.0n)
+} ad={(76n)*(552.0n)} nf={(1)*(1)} sb=(76n) sd=96n ptwell=0 p_la=10n
+ngcon=1 nsig_delvto_uo1=0 nsig_delvto_uo2=0 soa=1 swshe=0 swacc=-1
+swrg=-1 swrsub=-1 mismatch=1 m=1
    XM24 Z NET75 INH_VDD INH_VDDS pfet w=552.0n l=30.0n as={(76n)*(552.0n)
+} ad={(76n)*(552.0n)} nf={(1)*(1)} sb=(76n) sd=96n ptwell=0 p_la=10n
+ngcon=1 nsig_delvto_uo1=0 nsig_delvto_uo2=0 soa=1 swshe=0 swacc=-1
+swrg=-1 swrsub=-1 mismatch=1 m=1
    XMN0 Z NET75 INH_GND INH_GNDS nfet w=392.0n l=30.0n as={(76n)*(392.0n)
+} ad={(76n)*(392.0n)} nf={(1)*(1)} sb=(76n) sd=96n ptwell=0 p_la=10n
+ngcon=1 nsig_delvto_uo1=0 nsig_delvto_uo2=0 soa=1 swshe=0 swacc=-1
+swrg=-1 swrsub=-1 mismatch=1 m=1
    XM1 NET75 A INH_GND INH_GNDS nfet w=392.0n l=30.0n as={(76n)*(392.0n)
+} ad={(76n)*(392.0n)} nf={(1)*(1)} sb=(76n) sd=96n ptwell=0 p_la=10n
+ngcon=1 nsig_delvto_uo1=0 nsig_delvto_uo2=0 soa=1 swshe=0 swacc=-1
+swrg=-1 swrsub=-1 mismatch=1 m=1
    XM31 NET75 A INH_GND INH_GNDS nfet w=392.0n l=30.0n as={(76n)*(392.0n)
+} ad={(76n)*(392.0n)} nf={(1)*(1)} sb=(76n) sd=96n ptwell=0 p_la=10n
+ngcon=1 nsig_delvto_uo1=0 nsig_delvto_uo2=0 soa=1 swshe=0 swacc=-1
+swrg=-1 swrsub=-1 mismatch=1 m=1
    XM29 Z NET75 INH_GND INH_GNDS nfet w=392.0n l=30.0n as={(76n)*(392.0n)
+} ad={(76n)*(392.0n)} nf={(1)*(1)} sb=(76n) sd=96n ptwell=0 p_la=10n
+ngcon=1 nsig_delvto_uo1=0 nsig_delvto_uo2=0 soa=1 swshe=0 swacc=-1
+swrg=-1 swrsub=-1 mismatch=1 m=1
    XM19 Z NET75 INH_GND INH_GNDS nfet w=392.0n l=30.0n as={(76n)*(392.0n)
+} ad={(76n)*(392.0n)} nf={(1)*(1)} sb=(76n) sd=96n ptwell=0 p_la=10n
+ngcon=1 nsig_delvto_uo1=0 nsig_delvto_uo2=0 soa=1 swshe=0 swacc=-1
+swrg=-1 swrsub=-1 mismatch=1 m=1
    XM27 Z NET75 INH_GND INH_GNDS nfet w=392.0n l=30.0n as={(76n)*(392.0n)
+} ad={(76n)*(392.0n)} nf={(1)*(1)} sb=(76n) sd=96n ptwell=0 p_la=10n
+ngcon=1 nsig_delvto_uo1=0 nsig_delvto_uo2=0 soa=1 swshe=0 swacc=-1
+swrg=-1 swrsub=-1 mismatch=1 m=1
    XM23 Z NET75 INH_GND INH_GNDS nfet w=392.0n l=30.0n as={(76n)*(392.0n)
+} ad={(76n)*(392.0n)} nf={(1)*(1)} sb=(76n) sd=96n ptwell=0 p_la=10n
+ngcon=1 nsig_delvto_uo1=0 nsig_delvto_uo2=0 soa=1 swshe=0 swacc=-1
+swrg=-1 swrsub=-1 mismatch=1 m=1
    XM25 Z NET75 INH_GND INH_GNDS nfet w=392.0n l=30.0n as={(76n)*(392.0n)
+} ad={(76n)*(392.0n)} nf={(1)*(1)} sb=(76n) sd=96n ptwell=0 p_la=10n
+ngcon=1 nsig_delvto_uo1=0 nsig_delvto_uo2=0 soa=1 swshe=0 swacc=-1
+swrg=-1 swrsub=-1 mismatch=1 m=1
.ENDS
*** End of subcircuit definition.

*** Library name: C28SOI_SC_12_COREPBP10_LR
*** Cell name: C12T28SOI_LR_IVX4_P10
*** View name: cmos_sch
.SUBCKT C12T28SOI_LR_IVX4_P10 A Z INH_GND INH_GNDS INH_VDD INH_VDDS
    XMP1 Z A INH_VDD INH_VDDS pfet w=286.0n l=30.0n as={(76n)*(286.0n) }
+ad={(76n)*(286.0n)} nf={(1)*(1)} sa=(76n) sb=(76n) sd=96n ptwell=0
+p_la=10n ngcon=1 nsig_delvto_uo1=0 nsig_delvto_uo2=0 soa=1 swshe=0
+swacc=-1 swrg=-1 swrsub=-1 mismatch=1 m=1
    XMN1 Z A INH_GND INH_GNDS nfet w=196.0n l=30.0n as={(76n)*(196.0n) }
+ad={(76n)*(196.0n)} nf={(1)*(1)} sb={(76n)+(0)} sd=96n ptwell=0 par=1
+p_la=10n ngcon=1 nsig_delvto_uo1=0 nsig_delvto_uo2=0 soa=1 swshe=0
+swacc=-1 swrg=-1 swrsub=-1 mismatch=1 m=1
.ENDS
*** End of subcircuit definition.

*** Library name: C28SOI_SC_12_COREPBP10_LR
*** Cell name: C12T28SOI_LR_NAND2X3_P10
*** View name: cmos_sch
.SUBCKT C12T28SOI_LR_NAND2X3_P10 A B Z INH_GND INH_GNDS INH_VDD INH_VDDS
    XM66 Z B INH_VDD INH_VDDS pfet w=286.0n l=30.0n as={(76n)*(286.0n) }
+ad={(76n)*(286.0n)} nf={(1)*(1)} sb=(76n) sd=96n ptwell=0 p_la=10n
+ngcon=1 nsig_delvto_uo1=0 nsig_delvto_uo2=0 soa=1 swshe=0 swacc=-1
+swrg=-1 swrsub=-1 mismatch=1 m=1
    XM65 Z A INH_VDD INH_VDDS pfet w=286.0n l=30.0n as={(76n)*(286.0n) }
+ad={(76n)*(286.0n)} nf={(1)*(1)} sb=(76n) sd=96n ptwell=0 p_la=10n
+ngcon=1 nsig_delvto_uo1=0 nsig_delvto_uo2=0 soa=1 swshe=0 swacc=-1
+swrg=-1 swrsub=-1 mismatch=1 m=1
    XM67 Z B NET247 INH_GNDS nfet w=196.0n l=30.0n as={(76n)*(196.0n) }
+ad={(76n)*(196.0n)} nf={(1)*(1)} sb=(76n) sd=96n ptwell=0 p_la=10n
+ngcon=1 nsig_delvto_uo1=0 nsig_delvto_uo2=0 soa=1 swshe=0 swacc=-1
+swrg=-1 swrsub=-1 mismatch=1 m=1
    XM64 NET247 A INH_GND INH_GNDS nfet w=196.0n l=30.0n
+as={(76n)*(196.0n) } ad={(76n)*(196.0n)} nf={(1)*(1)} sb=(76n) sd=96n
+ptwell=0 p_la=10n ngcon=1 nsig_delvto_uo1=0 nsig_delvto_uo2=0 soa=1
+swshe=0 swacc=-1 swrg=-1 swrsub=-1 mismatch=1 m=1
.ENDS
*** End of subcircuit definition.

*** Library name: vbbgen_PULPV3_driver
*** Cell name: pwellControl
*** View name: schematic
.SUBCKT PWELLCONTROL GND VDD CLK NENABLE PULLGND PULLLEFT PULLRIGHT
+PULLVDD SELECT0 SELECT1
    XI2 SELECT1 SELECT0 INT_GND GND GND VDD VDD C12T28SOI_LR_NAND2AX3_P10
    XI1 CLK CHPUMP_ENABLE NRIGHT GND GND VDD VDD C12T28SOI_LR_NAND2AX3_P10
    XI11 SELECT0 SELECT1 CHPUMP_NENABLE GND GND VDD VDD
+C12T28SOI_LR_NAND2AX3_P10
    XI0 INT_VDD PULLVDD_INT GND GND VDD VDD C12T28SOI_LR_BFX4_P10
    XI7 NENABLE_INT NENABLE GND GND VDD VDD C12T28SOI_LR_BFX33_P10
    XI5 PULLVDD_INT PULLVDD GND GND VDD VDD C12T28SOI_LR_BFX50_P10
    XI6 PULLGND_INT PULLGND GND GND VDD VDD C12T28SOI_LR_BFX50_P10
    XI9 NRIGHT PULLRIGHT GND GND VDD VDD C12T28SOI_LR_IVX4_P10
    XI8 NLEFT PULLLEFT GND GND VDD VDD C12T28SOI_LR_IVX4_P10
    XI4 SELECT0 NENABLE_INT GND GND VDD VDD C12T28SOI_LR_IVX4_P10
    XI15 INT_GND PULLGND_INT GND GND VDD VDD C12T28SOI_LR_IVX4_P10
    XI13 CHPUMP_NENABLE CHPUMP_ENABLE GND GND VDD VDD
+C12T28SOI_LR_IVX4_P10
    XI3 SELECT1 SELECT0 INT_VDD GND GND VDD VDD C12T28SOI_LR_NAND2X3_P10
    XI12 CLK CHPUMP_ENABLE NLEFT GND GND VDD VDD C12T28SOI_LR_NAND2X3_P10
.ENDS
*** End of subcircuit definition.

*** Library name: vbbgen_PULPV3_driver
*** Cell name: levelShifter_wBuffers1u
*** View name: schematic
.SUBCKT LEVELSHIFTER_WBUFFERS1U GND VDD VDD1V8 IN IN1V8
    XN44 IN1V8 NET033 GND GND eglvtnfet w=700n l=150n as=68.6f ad=68.6f
+nf={(1)*(1)} sa=1.8u sb=1.8u sd=140n ptwell=0 par=1 p_la=0 ngcon=2
+nsig_delvto_uo1=0 nsig_delvto_uo2=0 soa=1 swshe=0 swacc=1 swrg=1 swrsub=1
+mismatch=1 m=1
    XN45 NET033 LS_OUT GND GND eglvtnfet w=350n l=150n as=34.3f ad=34.3f
+nf={(1)*(1)} sa=1.8u sb=1.8u sd=140n ptwell=0 par=1 p_la=0 ngcon=2
+nsig_delvto_uo1=0 nsig_delvto_uo2=0 soa=1 swshe=0 swacc=1 swrg=1 swrsub=1
+mismatch=1 m=1
    XNMOS_SELB LS_OUT INB_D2 GND GND eglvtnfet w=500n l=150.00n
+as={((120n)+(0))*(500n) } ad={((120n)+(0))*(500n)} nf={(1)*(1)}
+sa={(120n)+(0)} sb={(120n)+(0)} sd=140n ptwell=0 par=1 p_la=0 ngcon=1
+nsig_delvto_uo1=0 nsig_delvto_uo2=0 soa=1 swshe=0 swacc=1 swrg=1 swrsub=1
+mismatch=1 m=1
    XNMOS_SEL INB1V8 IN_D2 GND GND eglvtnfet w=500n l=150.00n
+as={((120n)+(0))*(500n) } ad={((120n)+(0))*(500n)} nf={(1)*(1)}
+sa={(120n)+(0)} sb={(120n)+(0)} sd=140n ptwell=0 par=1 p_la=0 ngcon=1
+nsig_delvto_uo1=0 nsig_delvto_uo2=0 soa=1 swshe=0 swacc=1 swrg=1 swrsub=1
+mismatch=1 m=1
    XP39 NET033 LS_OUT VDD1V8 GND eglvtpfet w=500n l=150n as=49.0f
+ad=49.0f nf=4 sa=1.8u sb=1.8u sd=140n ptwell=0 par=1 p_la=0 ngcon=1
+nsig_delvto_uo1=0 nsig_delvto_uo2=0 soa=1 swshe=0 swacc=1 swrg=1 swrsub=1
+mismatch=1 m=1
    XP38 IN1V8 NET033 VDD1V8 GND eglvtpfet w=1u l=150n as=98.0f ad=98.0f
+nf=4 sa=1.8u sb=1.8u sd=140n ptwell=0 par=1 p_la=0 ngcon=1
+nsig_delvto_uo1=0 nsig_delvto_uo2=0 soa=1 swshe=0 swacc=1 swrg=1 swrsub=1
+mismatch=1 m=1
    XPMOS_SELB_UP SELBMID INB1V8 VDD1V8 GND eglvtpfet w=500n l=150.00n
+as={((120n)+(0))*(500n) } ad={((120n)+(0))*(500n)} nf={(1)*(1)}
+sa={(120n)+(0)} sb={(120n)+(0)} sd=140n ptwell=0 par=1 p_la=0 ngcon=1
+nsig_delvto_uo1=0 nsig_delvto_uo2=0 soa=1 swshe=0 swacc=1 swrg=1 swrsub=1
+mismatch=1 m=1
    XPMOS_SELB_MID LS_OUT INB_D2 SELBMID GND eglvtpfet w=500n l=150.00n
+as={((120n)+(0))*(500n) } ad={((120n)+(0))*(500n)} nf={(1)*(1)}
+sa={(120n)+(0)} sb={(120n)+(0)} sd=140n ptwell=0 par=1 p_la=0 ngcon=1
+nsig_delvto_uo1=0 nsig_delvto_uo2=0 soa=1 swshe=0 swacc=1 swrg=1 swrsub=1
+mismatch=1 m=1
    XPMOS_SEL_UP SELMID LS_OUT VDD1V8 GND eglvtpfet w=500n l=150.00n
+as={((120n)+(0))*(500n) } ad={((120n)+(0))*(500n)} nf={(1)*(1)}
+sa={(120n)+(0)} sb={(120n)+(0)} sd=140n ptwell=0 par=1 p_la=0 ngcon=1
+nsig_delvto_uo1=0 nsig_delvto_uo2=0 soa=1 swshe=0 swacc=1 swrg=1 swrsub=1
+mismatch=1 m=1
    XPMOS_SEL_MID INB1V8 IN_D2 SELMID GND eglvtpfet w=500n l=150.00n
+as={((120n)+(0))*(500n) } ad={((120n)+(0))*(500n)} nf={(1)*(1)}